tests/src/test/resources/files/cases/epic15/TestCase8Nodes_15_11_6_1.uct
##C 2007.05.01
##N
##ZFR
FFR1AA1  FR1          0 2 400.00 0.00000 0.00000 1000.00 0.00000 9000.00 -9000.0 9000.00 -9000.0
FFR2AA1  FR2          0 2 400.00 0.00000 0.00000 0.00000 0.00000 9000.00 -9000.0 9000.00 -9000.0
FFR3AA1  FR3          0 2 400.00 0.00000 0.00000 0.00000 0.00000 9000.00 -9000.0 9000.00 -9000.0
FFR4AA1  FR4          0 2 400.00 0.00000 0.00000 0.00000 0.00000 9000.00 -9000.0 9000.00 -9000.0
FFR5AA1  FR5          0 2 400.00 1000.00 0.00000 0.00000 0.00000 9000.00 -9000.0 9000.00 -9000.0
FFR6AA1  FR6          0 2 400.00 0.00000 0.00000 0.00000 0.00000 9000.00 -9000.0 9000.00 -9000.0
FFR7AA1  FR7          0 2 400.00 0.00000 0.00000 0.00000 0.00000 9000.00 -9000.0 9000.00 -9000.0
FFR8AA1  FR8          0 2 400.00 0.00000 0.00000 0.00000 0.00000 9000.00 -9000.0 9000.00 -9000.0
##L
FFR1AA1  FFR2AA1  1 0 0.0000 10.000 0.000000   5000
FFR1AA1  FFR2AA1  2 0 0.0000 10.000 0.000000   5000
FFR1AA1  FFR2AA1  3 8 0.0000 10.000 0.000000   5000
FFR1AA1  FFR2AA1  4 8 0.0000 10.000 0.000000   5000
FFR2AA1  FFR3AA1  1 0 0.0000 10.000 0.000000   5000
FFR3AA1  FFR4AA1  2 0 0.0000 10.000 0.000000   5000
FFR4AA1  FFR5AA1  1 0 0.0000 10.000 0.000000   5000
FFR5AA1  FFR6AA1  1 0 0.0000 10.000 0.000000   5000
FFR5AA1  FFR6AA1  2 8 0.0000 10.000 0.000000   5000
FFR6AA1  FFR7AA1  1 0 0.0000 10.000 0.000000   5000
FFR7AA1  FFR8AA1  2 0 0.0000 10.000 0.000000   5000
FFR1AA1  FFR8AA1  1 0 0.0000 10.000 0.000000   5000
##T
FFR3AA1  FFR4AA1  1 0 400.0 400.0 1000. 0.0000 10.000 0.000000 0.0	     5000 PST
FFR7AA1  FFR8AA1  1 0 400.0 400.0 1000. 0.0000 10.000 0.000000 0.0	     5000 PST
##R
FFR3AA1  FFR4AA1  1                    -0.68 90.00 16  0        SYMM
FFR7AA1  FFR8AA1  1                    -0.68 90.00 16  0        SYMM